16
Energy =
C    -1.4410320    0.8621719   -0.9956103 
C    -1.0732991    2.1669401   -0.2923093 
H    -1.7247185    0.0907359   -0.2753091 
H    -0.6012076    0.4768645   -1.5792849 
H    -2.2824479    1.0039266   -1.6786604 
H    -0.2321690    2.0245288    0.3905396 
H    -1.9132405    2.5521007    0.2915117 
H    -0.7892316    2.9383216   -1.0127098 
C     1.0759558   -2.1652540    0.2878296 
C     1.4383836   -0.8638590    1.0000757 
H     0.8002686   -2.9443335    1.0031880 
H     1.9156998   -2.5401116   -0.3029389 
H     0.2307321   -2.0228374   -0.3899407 
H     2.2833924   -1.0057880    1.6786407 
H     0.5985064   -0.4884527    1.5901131 
H     1.7144075   -0.0849539    0.2848650 
