32
Energy =
C    -4.4538907   -0.5464252    0.0226809 
C    -5.7469476    0.2660517    0.0006677 
H    -6.6272774   -0.3811924    0.0204319 
H    -5.8054139    0.8836937   -0.9003385 
H    -5.8037346    0.9349056    0.8645338 
C    -3.2011385    0.3280580   -0.0033122 
H    -4.4342046   -1.2287959   -0.8351439 
H    -4.4325441   -1.1788100    0.9178038 
C    -1.9014739   -0.4742447    0.0164243 
H    -3.2189802    1.0110086    0.8555660 
H    -3.2218254    0.9626810   -0.8982382 
C    -0.6499033    0.4011437   -0.0091799 
H    -1.8838094   -1.1565625   -0.8427841 
H    -1.8810973   -1.1089840    0.9111064 
C     0.6499037   -0.4011300    0.0092597 
H    -0.6671035    1.0829190    0.8504437 
H    -0.6706859    1.0364903   -0.9033992 
C     1.9014763    0.4742513   -0.0165035 
H     0.6670439   -1.0829875   -0.8502993 
H     0.6707463   -1.0363921    0.9035386 
C     3.2011362   -0.3280592    0.0031416 
H     1.8838910    1.1566091    0.8426736 
H     1.8810218    1.1089477   -0.9112151 
C     4.4538944    0.5464202   -0.0227292 
H     3.2189766   -1.0108893   -0.8558313 
H     3.2218206   -0.9628082    0.8979798 
C     5.7469446   -0.2660593   -0.0004929 
H     4.4340884    1.2288431    0.8350492 
H     4.4326753    1.1787486   -0.9178969 
H     5.8052681   -0.8836888    0.9005318 
H     6.6272788    0.3811828   -0.0201281 
H     5.8038641   -0.9349252   -0.8643404 
