16
Energy =
C     0.6829578   -1.9232097    0.4979799 
C    -0.4707083   -1.9939155   -0.5003036 
H     0.5912713   -1.0499658    1.1483813 
H     1.6460862   -1.8557580   -0.0145174 
H     0.7087740   -2.8102196    1.1360616 
H    -0.4913319   -1.1121352   -1.1453571 
H    -1.4343616   -2.0528095    0.0122679 
H    -0.3836081   -2.8730379   -1.1438731 
C    -0.5947020    1.9274093    0.5871969 
C     0.3824299    1.9897476   -0.5848994 
H    -1.2730050    2.7844306    0.5827312 
H    -0.0656846    1.9286927    1.5437291 
H    -1.2049187    1.0218436    0.5466774 
H     0.9853889    2.9006707   -0.5492025 
H    -0.1462013    1.9796702   -1.5415922 
H     1.0676135    1.1385867   -0.5752799 
