16
Energy =
C     0.4064133   -1.6899829    0.6759395 
C    -0.3347703   -2.1968344   -0.6325778 
H    -0.2687243   -0.6543814    1.4343583 
H     1.5749175   -1.1869633    0.1735749 
H     0.4889408   -2.8297662    1.4376369 
H    -0.4155942   -1.0512121   -1.3976883 
H    -1.5107124   -2.7003260   -0.1244597 
H     0.3473553   -3.2369378   -1.3940307 
C    -0.3346081    1.8207486    0.6820071 
C     0.2628019    2.0659848   -0.7252047 
H    -0.8348525    2.7522067    1.0514422 
H     0.4472130    1.5325165    1.4460350 
H    -1.0801615    0.9854354    0.6424607 
H     0.9999332    2.9086214   -0.6883506 
H    -0.5205928    2.3411776   -1.4913666 
H     0.7742218    1.1406281   -1.0915680 
