24
Energy =
H     0.4255326    2.4104344    2.4420781 
C     0.1051863    2.1975936    1.3724752 
C    -1.0674143    1.3675500    1.1141551 
H    -1.6540326    0.9262814    1.9813570 
C    -1.4776141    1.0881792   -0.2573148 
H    -2.3789968    0.4264540   -0.4570908 
C    -0.7173282    1.6428024   -1.3718321 
H    -1.0316431    1.4196008   -2.4408316 
C     0.4564523    2.4708637   -1.1153376 
H     1.0507315    2.9007626   -1.9840220 
C     0.8700913    2.7457842    0.2579203 
H     1.7852182    3.3901899    0.4582343 
H    -0.2629025   -2.2842883    2.5052914 
H    -1.7622662   -3.3401054    0.6682749 
C    -0.0143449   -2.1262081    1.4078947 
C    -0.8570626   -2.7185091    0.3757522 
C     1.1465367   -1.3258650    1.0321036 
C    -0.5351323   -2.5135749   -1.0334151 
H     1.7957721   -0.8540289    1.8354237 
H    -1.1907483   -2.9752417   -1.8389042 
C     1.4652208   -1.1165656   -0.3749476 
C     0.6250514   -1.7117222   -1.4073740 
H     2.3590836   -0.4798903   -0.6663307 
H     0.8685120   -1.5440811   -2.5044320 
