24
Energy =
C    -0.3450366    1.0298502   -1.5786469 
C    -1.4217857    0.2199394   -1.9265745 
C    -1.2102363   -1.1133074   -2.2628495 
C     0.0799133   -1.6362833   -2.2540375 
C     1.1561028   -0.8250240   -1.9088832 
H    -2.4268855    0.6262099   -1.9280308 
H    -2.0493668   -1.7448597   -2.5318401 
H     0.2456117   -2.6753019   -2.5159136 
C     0.9433082    0.5075789   -1.5696677 
H     1.7791992    1.1350829   -1.2847269 
H    -0.5113538    2.0639905   -1.3014044 
H     2.1604109   -1.2331034   -1.8967529 
H    -2.1599249    1.2342437    1.8937777 
H    -1.7790024   -1.1339291    1.2815456 
C    -1.1558388    0.8256480    1.9072513 
C    -0.9432068   -0.5069481    1.5679007 
C    -0.0797423    1.6362782    2.2541652 
C     0.3448694   -1.0298450    1.5785031 
H    -0.2453251    2.6752943    2.5161349 
H     0.5110509   -2.0639872    1.3011815 
C     1.2101390    1.1126662    2.2646280 
C     1.4215175   -0.2205679    1.9281974 
H     2.0491786    1.7437273    2.5350368 
H     2.4264036   -0.6273526    1.9310057 
