24
Energy =
H    -0.7433831   -1.5834567    2.5568068 
C    -0.4671044   -1.9591368    1.4920918 
C    -1.4526879   -1.8860462    0.4205400 
H    -2.4960542   -1.4550168    0.6521490 
C    -1.0958802   -2.3549260   -0.9494434 
H    -1.8627982   -2.2958403   -1.7855171 
C     0.2482253   -2.8961711   -1.2500733 
H     0.5274019   -3.2568445   -2.3186162 
C     1.2342021   -2.9729303   -0.1775138 
H     2.2810110   -3.3953719   -0.4117898 
C     0.8758676   -2.5045772    1.1938168 
H     1.6442373   -2.5599755    2.0278002 
H     2.1631887    3.9150286    0.2952857 
C     1.2641179    3.2644162    0.1122232 
C     1.6481146    1.8896730   -0.2651382 
H     2.8463092    1.4690451   -0.3748326 
C     0.4949427    1.0529142   -0.4994047 
H     0.7882909   -0.0170938   -0.7859293 
C    -1.0445013    1.5934999   -0.3543774 
H    -1.9419434    0.9394491   -0.5330791 
C    -1.4300869    2.9676531    0.0215937 
H    -2.6291479    3.3875771    0.1330154 
C    -0.2753977    3.8038141    0.2553653 
H    -0.5748706    4.8741511    0.5485199 
