24
	Energy:      19.1674225
H          1.02356       -2.63840        2.23227
C          0.54765       -2.57575        1.26197
C         -0.84122       -2.42944        1.17197
H         -1.43953       -2.37845        2.07265
C         -1.45640       -2.34685       -0.08231
H         -2.53039       -2.23095       -0.15169
C         -0.68261       -2.41065       -1.24680
H         -1.15810       -2.34340       -2.21684
C          0.70662       -2.55630       -1.15674
H          1.30572       -2.60162       -2.05711
C          1.32162       -2.63881        0.09776
H          2.39622       -2.74916        0.16766
H          2.17056        3.81015        0.08121
C          1.25041        3.24101        0.04273
C          1.30977        1.85024       -0.04462
H          2.27485        1.35684       -0.07298
C          0.12899        1.10298       -0.09481
H          0.17977        0.03087       -0.16165
C         -1.11589        1.74568       -0.05816
H         -2.03470        1.17328       -0.09687
C         -1.17612        3.13678        0.02917
H         -2.14238        3.62714        0.05723
C          0.00549        3.88675        0.07989
H         -0.04308        4.96462        0.14774
